13
SCF Done             -3.0260578171e+05;
Ti -1.8341198100 -0.6141723100 -1.7630228100 0.00
Ti 0.9854727000 2.0337664500 0.4296609200 0.00
Ti 0.5751157800 -1.7624574400 -2.0466561900 0.00
Ti -1.5832577000 1.6897065800 -0.2623217900 0.00
Ti -2.5535582800 -0.5369375100 0.7802022300 0.00
Ti 1.6693358100 -0.0500275000 2.0155524400 0.00
Ti 0.0539369200 1.0789931700 -2.1428873900 0.00
Ti -0.5425699000 -1.6945326100 2.2189835200 0.00
Ti 1.4019723800 -2.4927674100 0.4259527700 0.00
Ti -1.1139376100 -2.6648159000 -0.1786136900 0.00
Ti 2.4974758500 -0.3676945600 -0.3318038800 0.00
Ti -0.7203035100 0.9476601300 2.1755029300 0.00
Ti -0.0455340000 -0.3042032400 0.0020937000 0.00
